ieee14_syn_out.txt
ANDES 0+unknown
Copyright (C) 2015-2018 Hantao Cui

ANDES comes with ABSOLUTELY NO WARRANTY
Use this software AT YOUR OWN RISK

Case file: /opt/andes/cases/ieee14/ieee14_syn.dm
report Time: 08/26/2019 03:21:36 AM

Power flow method: NR
Number of iterations: 4
Flat-start: No

SUMMARY:
Buses                     14
Generators                 5
Committed Gens             0
Loads                     11
Shunts                     1
Lines                     20
Transformers               4
Areas                      1

EXTENDED SUMMARY:
                      P (pu)        Q (pu)

Generation            2.7239       0.78498
Load                    2.59         0.735
Shunt Inj                  0       0.21202
Losses               0.13386         0.262
Line Charging       0.063636       0.27257

BUS DATA:
                      Vm(pu)       Va(deg)       Pg (pu)       Qg (pu)       Pl (pu)       Ql (pu)

1.0-Bus 1               1.06   -3.0179e-12        2.3239      -0.16889             0             0
2.0-Bus 2              1.045       -4.9809           0.4       0.42396         0.217         0.127
3.0-Bus 3               1.01       -12.718     9.992e-16       0.23394         0.942          0.19
4.0-Bus 4             1.0186       -10.324   -1.7208e-15   -1.5585e-14         0.478        -0.039
5.0-Bus 5             1.0203       -8.7826     1.471e-15    1.4225e-14         0.076         0.016
6.0-Bus 6               1.07       -14.223   -5.2736e-16        0.1224         0.112         0.075
7.0-Bus 7              1.062       -13.368    9.1764e-16   -2.1808e-16             0             0
8.0-Bus 8               1.09       -13.368   -4.8572e-17       0.17357             0             0
9.0-Bus 9             1.0563       -14.947    1.4988e-15    3.8303e-15         0.295     -0.046015
10.0-Bus 10           1.0513       -15.104    -1.138e-15   -2.5674e-15          0.09         0.058
11.0-Bus 11           1.0571       -14.795    2.7756e-16    5.6899e-16         0.035         0.018
12.0-Bus 12           1.0552       -15.077    1.9013e-15    2.3696e-15         0.061         0.016
13.0-Bus 13           1.0504       -15.159   -1.1935e-15   -2.7478e-15         0.135         0.058
14.0-Bus 14           1.0358       -16.039   -2.7756e-17    2.2898e-16         0.149          0.05

LINE DATA:
                    From Bus        To Bus   P From (pu)   Q From (pu)     P To (pu)      Q To(pu)    P Loss(pu)    Q Loss(pu)

Line_1                     1             2        1.5683      -0.20393       -1.5254       0.27656      0.042948      0.072636
Line_2                     1             5       0.75553      0.035038      -0.72789      0.025805      0.027638      0.060843
Line_3                     2             3       0.73188      0.035651      -0.70868      0.015843      0.023202      0.051494
Line_4                     2             4       0.56138     -0.022876      -0.54461      0.033937       0.01677      0.011062
Line_5                     2             5       0.41512     0.0076273       -0.4061     -0.016339     0.0090227    -0.0087121
Line_6                     3             4      -0.23332      0.028092       0.23703     -0.054212     0.0037135      -0.02612
Line_7                     4             5      -0.61219       0.15669       0.61736       -0.1537     0.0051653     0.0029902
Line_8                     4             7       0.28087     -0.094208      -0.28087       0.11113    8.0902e-12      0.016918
Line_9                     4             9        0.1609    -0.0032117       -0.1609      0.016247    2.3436e-12      0.013035
Line_10                    5             6       0.44063       0.12824      -0.44063      -0.08395    1.7574e-11       0.04429
Line_11                    6            11      0.073412      0.034722     -0.072865     -0.033576    0.00054711     0.0011457
Line_12                    6            12      0.077819      0.024922     -0.077102      -0.02343     0.0007168     0.0014919
Line_13                    6            13        0.1774      0.071709      -0.17528     -0.067543     0.0021154     0.0041659
Line_14                    7             8    2.5355e-12       -0.1691   -4.8572e-17       0.17357    2.5354e-12     0.0044664
Line_15                    7             9       0.28087      0.057973      -0.28087      -0.04995    7.2932e-12     0.0080233
Line_16                    9            10      0.052389       0.04306     -0.052258     -0.042712     0.0001311    0.00034825
Line_17                    9            14      0.094379      0.036658     -0.093211     -0.034174     0.0011677     0.0024839
Line_18                   10            11     -0.037742     -0.015288      0.037865      0.015576    0.00012309    0.00028815
Line_19                   12            13      0.016102     0.0074304      -0.01604     -0.007374    6.2397e-05    5.6454e-05
Line_20                   13            14      0.056324      0.016917     -0.055789     -0.015826    0.00053577     0.0010908

OTHER ALGEBRAIC VARIABLES:
                            

Q PV Bus 2           0.42396
Q PV Bus 3           0.23394
Q PV Bus 6            0.1224
Q PV Bus 8           0.17357
Q SW Bus 1          -0.16889
P SW Bus 1            2.3239
dwdt BusFreq 1             0
dwdt BusFreq 2             0
dwdt BusFreq 3             0
dwdt BusFreq 4             0
dwdt BusFreq 5             0
dwdt BusFreq 6             0
dwdt BusFreq 7             0
dwdt BusFreq 8             0
dwdt BusFreq 9             0
dwdt BusFreq 10             0
dwdt BusFreq 11             0
dwdt BusFreq 12             0
dwdt BusFreq 13             0
dwdt BusFreq 14             0
p Syn 1               2.3239
q Syn 1             -0.16889
pm Syn 1              2.3239
vf Syn 1              1.0828
Id Syn 1             0.63008
Iq Syn 1              2.1059
vd Syn 1             0.37666
vq Syn 1             0.99082
psid Syn 1           0.99082
psiq Syn 1          -0.37666
p Syn 2                  0.4
q Syn 2              0.42396
pm Syn 2             0.40161
vf Syn 2              1.8794
Id Syn 2             0.51225
Iq Syn 2             0.22071
vd Syn 2             0.35784
vq Syn 2             0.98182
psid Syn 2           0.98296
psiq Syn 2          -0.36049
p Syn 3                    0
q Syn 3              0.23394
pm Syn 3            0.000277
vf Syn 3              1.4153
Id Syn 3             0.23162
Iq Syn 3              0.0002
vd Syn 3           -0.000871
vq Syn 3                1.01
psid Syn 3              1.01
psiq Syn 3         -0.000326
p Syn 4                   -0
q Syn 4               0.1224
pm Syn 4            0.000215
vf Syn 4               1.642
Id Syn 4              0.1144
Iq Syn 4            0.000132
vd Syn 4           -0.001233
vq Syn 4                1.07
psid Syn 4              1.07
psiq Syn 4         -0.000643
p Syn 5                   -0
q Syn 5              0.17357
pm Syn 5            0.000416
vf Syn 5              1.8862
Id Syn 5             0.15923
Iq Syn 5            0.000223
vd Syn 5           -0.001525
vq Syn 5                1.09
psid Syn 5              1.09
psiq Syn 5         -0.001087
wref TG1 1                 1
pout TG1 1            2.3239
pin TG1 1             2.3239
wref TG1 2                 1
pout TG1 2           0.40161
pin TG1 2            0.40161
vref AVR 1            1.0654
vref AVR 2            1.1393
vref AVR 3            1.0809
vref AVR 4            1.1523
vref AVR 5            1.1846

OTHER STATE VARIABLES:
                            

xt BusFreq 1               0
w BusFreq 1                1
xdw BusFreq 1              2
xt BusFreq 2               0
w BusFreq 2                1
xdw BusFreq 2              2
xt BusFreq 3               0
w BusFreq 3                1
xdw BusFreq 3              2
xt BusFreq 4               0
w BusFreq 4                1
xdw BusFreq 4              2
xt BusFreq 5               0
w BusFreq 5                1
xdw BusFreq 5              2
xt BusFreq 6               0
w BusFreq 6                1
xdw BusFreq 6              2
xt BusFreq 7               0
w BusFreq 7                1
xdw BusFreq 7              2
xt BusFreq 8               0
w BusFreq 8                1
xdw BusFreq 8              2
xt BusFreq 9               0
w BusFreq 9                1
xdw BusFreq 9              2
xt BusFreq 10              0
w BusFreq 10               1
xdw BusFreq 10             2
xt BusFreq 11              0
w BusFreq 11               1
xdw BusFreq 11             2
xt BusFreq 12              0
w BusFreq 12               1
xdw BusFreq 12             2
xt BusFreq 13              0
w BusFreq 13               1
xdw BusFreq 13             2
xt BusFreq 14              0
w BusFreq 14               1
xdw BusFreq 14             2
delta Syn 1          0.36328
omega Syn 1                1
e1d Syn 1            0.15369
e1q Syn 1             1.0523
e2d Syn 1            0.23969
e2q Syn 1             1.0144
delta Syn 2          0.26257
omega Syn 2                1
e1d Syn 2            0.20089
e1q Syn 2             1.1443
e2d Syn 2            0.31267
e2q Syn 2              1.094
delta Syn 3         -0.22283
omega Syn 3                1
e1d Syn 3           0.000182
e1q Syn 3              1.083
e2d Syn 3           0.000283
e2q Syn 3             1.0602
delta Syn 4         -0.24938
omega Syn 4                1
e1d Syn 4            0.00026
e1q Syn 4             1.1792
e2d Syn 4            0.00058
e2q Syn 4             1.1249
delta Syn 5         -0.23472
omega Syn 5                1
e1d Syn 5           0.000439
e1q Syn 5              1.242
e2d Syn 5            0.00098
e2q Syn 5             1.1664
xg1 TG1 1             2.3239
xg2 TG1 1             2.3239
xg3 TG1 1             1.7661
xg1 TG1 2            0.40161
xg2 TG1 2            0.40161
xg3 TG1 2            0.30522
vm AVR 1                1.06
vr1 AVR 1             1.0845
vr2 AVR 1          -0.002166
vfout AVR 1           1.0828
vm AVR 2               1.045
vr1 AVR 2             1.8855
vr2 AVR 2          -0.001879
vfout AVR 2           1.8794
vm AVR 3                1.01
vr1 AVR 3             1.4184
vr2 AVR 3          -0.001415
vfout AVR 3           1.4153
vm AVR 4                1.07
vr1 AVR 4             1.6463
vr2 AVR 4          -0.001642
vfout AVR 4            1.642
vm AVR 5                1.09
vr1 AVR 5             1.8924
vr2 AVR 5          -0.001886
vfout AVR 5           1.8862

